Coenzyme_A.mol
  -ISIS-  12300212313D

 80 82  0  0  0  0  0  0  0  0999 V2000
  -13.2109    2.0795    1.0458 C   0  0  0  0  0  0  0  0  0  0  0  0
  -11.7528    1.8475    0.6194 C   0  0  0  0  0  0  0  0  0  0  0  0
  -11.7159    0.8592   -0.4660 N   0  0  3  0  0  0  0  0  0  0  0  0
  -10.5662    0.2842   -0.9348 C   0  0  0  0  0  0  0  0  0  0  0  0
   -9.2795    0.6125   -0.1891 C   0  0  0  0  0  0  0  0  0  0  0  0
   -8.0187    0.0650   -0.8736 C   0  0  0  0  0  0  0  0  0  0  0  0
   -6.8435    0.5194   -0.1255 N   0  0  3  0  0  0  0  0  0  0  0  0
   -6.0380   -0.3425    0.5615 C   0  0  0  0  0  0  0  0  0  0  0  0
   -4.8863    0.3535    1.2712 C   0  0  1  0  0  0  0  0  0  0  0  0
   -3.7584    0.8870    0.3621 C   0  0  1  0  0  0  0  0  0  0  0  0
   -3.3411   -0.2381   -0.6075 C   0  0  0  0  0  0  0  0  0  0  0  0
   -4.2032    2.1071   -0.4744 C   0  0  0  0  0  0  0  0  0  0  0  0
   -2.5773    1.3159    1.2590 C   0  0  0  0  0  0  0  0  0  0  0  0
   -1.4492    1.7372    0.5166 O   0  0  0  0  0  0  0  0  0  0  0  0
   -0.0677    0.7342    0.8359 P   0  0  3  0  0  0  0  0  0  0  0  0
    1.1564    1.0100   -0.3642 O   0  0  0  0  0  0  0  0  0  0  0  0
    2.3857    2.2042   -0.0638 P   0  0  3  0  0  0  0  0  0  0  0  0
    2.8829    2.4682    1.5975 O   0  5  0  0  0  0  0  0  0  0  0  0
    3.7298    1.6881   -1.0478 O   0  0  0  0  0  0  0  0  0  0  0  0
    4.9724    2.2510   -0.6700 C   0  0  0  0  0  0  0  0  0  0  0  0
    6.1054    1.8305   -1.6075 C   0  0  2  0  0  0  0  0  0  0  0  0
    6.4552    0.3428   -1.6510 C   0  0  1  0  0  0  0  0  0  0  0  0
    5.8695   -0.3683   -2.7306 O   0  0  0  0  0  0  0  0  0  0  0  0
    6.4068   -2.0220   -2.8350 P   0  0  3  0  0  0  0  0  0  0  0  0
    7.6889   -2.1950   -4.0036 O   0  5  0  0  0  0  0  0  0  0  0  0
    6.8609   -2.5591   -1.5034 O   0  0  0  0  0  0  0  0  0  0  0  0
    5.1412   -3.0588   -3.4261 O   0  5  0  0  0  0  0  0  0  0  0  0
    7.9657    0.3515   -1.7970 C   0  0  1  0  0  0  0  0  0  0  0  0
    8.3397    0.3276   -3.1774 O   0  0  0  0  0  0  0  0  0  0  0  0
    8.4061    1.6861   -1.2207 C   0  0  1  0  0  0  0  0  0  0  0  0
    7.2642    2.5271   -1.1553 O   0  0  0  0  0  0  0  0  0  0  0  0
    9.1319    1.5729    0.0547 N   0  0  1  0  0  0  0  0  0  0  0  0
   10.3187    2.1933    0.3233 C   0  0  0  0  0  0  0  0  0  0  0  0
   10.7514    1.8350    1.5111 N   0  0  0  0  0  0  0  0  0  0  0  0
    9.7959    0.9492    1.9959 C   0  0  0  0  0  0  0  0  0  0  0  0
    8.7354    0.7828    1.0972 C   0  0  0  0  0  0  0  0  0  0  0  0
    7.6852   -0.0463    1.3900 N   0  0  0  0  0  0  0  0  0  0  0  0
    7.7690   -0.6860    2.5473 C   0  0  0  0  0  0  0  0  0  0  0  0
    8.7771   -0.6235    3.4640 N   0  0  0  0  0  0  0  0  0  0  0  0
    9.8140    0.2032    3.2128 C   0  0  0  0  0  0  0  0  0  0  0  0
   10.8967    0.3271    4.0359 N   0  0  0  0  0  0  0  0  0  0  0  0
    1.9104    3.5366   -0.5802 O   0  0  0  0  0  0  0  0  0  0  0  0
    0.4723    1.0124    2.2259 O   0  0  0  0  0  0  0  0  0  0  0  0
   -0.6445   -0.9129    0.7621 O   0  5  0  0  0  0  0  0  0  0  0  0
   -6.2442   -1.5273    0.6402 O   0  0  0  0  0  0  0  0  0  0  0  0
  -10.6154   -0.4443   -1.8945 O   0  0  0  0  0  0  0  0  0  0  0  0
  -13.2531    3.3413    2.3618 S   0  0  0  0  0  0  0  0  0  0  0  0
   -5.4247    1.4100    2.0703 O   0  0  0  0  0  0  0  0  0  0  0  0
  -13.8077    2.4257    0.1696 H   0  0  0  0  0  0  0  0  0  0  0  0
  -13.6609    1.1270    1.4122 H   0  0  0  0  0  0  0  0  0  0  0  0
  -11.1723    1.4815    1.4978 H   0  0  0  0  0  0  0  0  0  0  0  0
  -11.3088    2.8035    0.2542 H   0  0  0  0  0  0  0  0  0  0  0  0
  -12.5474    0.6603   -1.0040 H   0  0  0  0  0  0  0  0  0  0  0  0
   -9.3360    0.1814    0.8386 H   0  0  0  0  0  0  0  0  0  0  0  0
   -9.1725    1.7209   -0.1123 H   0  0  0  0  0  0  0  0  0  0  0  0
   -7.9338    0.4896   -1.9000 H   0  0  0  0  0  0  0  0  0  0  0  0
   -8.0546   -1.0444   -0.9650 H   0  0  0  0  0  0  0  0  0  0  0  0
   -6.6487    1.5063   -0.0318 H   0  0  0  0  0  0  0  0  0  0  0  0
   -4.4623   -0.3926    1.9818 H   0  0  0  0  0  0  0  0  0  0  0  0
   -2.4719    0.0541   -1.2376 H   0  0  0  0  0  0  0  0  0  0  0  0
   -4.1638   -0.5013   -1.3107 H   0  0  0  0  0  0  0  0  0  0  0  0
   -3.0735   -1.1676   -0.0564 H   0  0  0  0  0  0  0  0  0  0  0  0
   -3.3683    2.4880   -1.1021 H   0  0  0  0  0  0  0  0  0  0  0  0
   -5.0264    1.8577   -1.1778 H   0  0  0  0  0  0  0  0  0  0  0  0
   -4.5408    2.9449    0.1738 H   0  0  0  0  0  0  0  0  0  0  0  0
   -2.8819    2.1615    1.9195 H   0  0  0  0  0  0  0  0  0  0  0  0
   -2.2805    0.4835    1.9293 H   0  0  0  0  0  0  0  0  0  0  0  0
    4.8625    3.3629   -0.6797 H   0  0  0  0  0  0  0  0  0  0  0  0
    5.1949    1.9383    0.3728 H   0  0  0  0  0  0  0  0  0  0  0  0
    5.8969    2.1908   -2.6452 H   0  0  0  0  0  0  0  0  0  0  0  0
    6.1321   -0.1319   -0.6991 H   0  0  0  0  0  0  0  0  0  0  0  0
    8.4654   -0.5150   -1.3127 H   0  0  0  0  0  0  0  0  0  0  0  0
    7.9282   -0.4205   -3.5527 H   0  0  0  0  0  0  0  0  0  0  0  0
    9.1173    2.1730   -1.9254 H   0  0  0  0  0  0  0  0  0  0  0  0
   10.8240    2.8798   -0.3626 H   0  0  0  0  0  0  0  0  0  0  0  0
    6.9330   -1.3642    2.7865 H   0  0  0  0  0  0  0  0  0  0  0  0
   11.6814    0.9646    3.7530 H   0  0  0  0  0  0  0  0  0  0  0  0
   10.9366   -0.2435    4.9160 H   0  0  0  0  0  0  0  0  0  0  0  0
  -14.5898    3.3510    2.5141 H   0  0  0  0  0  0  0  0  0  0  0  0
   -5.7469    1.0162    2.8719 H   0  0  0  0  0  0  0  0  0  0  0  0
  1  2  1  0  0  0  0
  1 47  1  1  0  0  0
  1 49  1  6  0  0  0
  1 50  1  0  0  0  0
  2  3  1  6  0  0  0
  2 51  1  1  0  0  0
  2 52  1  0  0  0  0
  3  4  1  0  0  0  0
  3 53  1  6  0  0  0
  4  5  1  1  0  0  0
  4 46  2  0  0  0  0
  5  6  1  0  0  0  0
  5 54  1  1  0  0  0
  5 55  1  0  0  0  0
  6  7  1  1  0  0  0
  6 56  1  6  0  0  0
  6 57  1  0  0  0  0
  7  8  1  1  0  0  0
  7 58  1  0  0  0  0
  8  9  1  1  0  0  0
  8 45  2  0  0  0  0
  9 10  1  6  0  0  0
  9 48  1  1  0  0  0
  9 59  1  1  0  0  0
 10 11  1  6  0  0  0
 10 12  1  6  0  0  0
 10 13  1  1  0  0  0
 11 60  1  6  0  0  0
 11 61  1  6  0  0  0
 11 62  1  1  0  0  0
 12 63  1  6  0  0  0
 12 64  1  6  0  0  0
 12 65  1  1  0  0  0
 13 14  1  6  0  0  0
 13 66  1  1  0  0  0
 13 67  1  1  0  0  0
 14 15  1  0  0  0  0
 15 16  1  6  0  0  0
 15 43  2  0  0  0  0
 15 44  1  0  0  0  0
 16 17  1  0  0  0  0
 17 18  1  1  0  0  0
 17 19  1  6  0  0  0
 17 42  2  0  0  0  0
 19 20  1  0  0  0  0
 20 21  1  6  0  0  0
 20 68  1  0  0  0  0
 20 69  1  1  0  0  0
 21 22  1  0  0  0  0
 21 31  1  0  0  0  0
 21 70  1  6  0  0  0
 22 23  1  6  0  0  0
 22 28  1  0  0  0  0
 22 71  1  1  0  0  0
 23 24  1  0  0  0  0
 24 25  1  6  0  0  0
 24 26  2  0  0  0  0
 24 27  1  0  0  0  0
 28 29  1  6  0  0  0
 28 30  1  0  0  0  0
 28 72  1  0  0  0  0
 29 73  1  0  0  0  0
 30 31  1  0  0  0  0
 30 32  1  1  0  0  0
 30 74  1  6  0  0  0
 32 33  1  0  0  0  0
 32 36  1  1  0  0  0
 33 34  2  0  0  0  0
 33 75  1  6  0  0  0
 34 35  1  0  0  0  0
 35 36  1  6  0  0  0
 35 40  2  0  0  0  0
 36 37  2  0  0  0  0
 37 38  1  1  0  0  0
 38 39  2  0  0  0  0
 38 76  1  0  0  0  0
 39 40  1  0  0  0  0
 40 41  1  1  0  0  0
 41 77  1  0  0  0  0
 41 78  1  1  0  0  0
 47 79  1  0  0  0  0
 48 80  1  1  0  0  0
M  CHG  4  18  -1  25  -1  27  -1  44  -1
M  END
